tests/fuzzer/corpus_json/21_random_027.json
{
  "version": "1.0",
  "type": "input",
  "is_batch": false,
  "attributes": {},
  "data": {
    "node": [
      {
        "id": 0,
        "u_rated": 110000.0
      },
      {
        "id": 1,
        "u_rated": 110000.0
      },
      {
        "id": 2,
        "u_rated": 110000.0
      },
      {
        "id": 3,
        "u_rated": 110000.0
      },
      {
        "id": 4,
        "u_rated": 110000.0
      },
      {
        "id": 5,
        "u_rated": 110000.0
      },
      {
        "id": 6,
        "u_rated": 110000.0
      },
      {
        "id": 7,
        "u_rated": 110000.0
      },
      {
        "id": 8,
        "u_rated": 110000.0
      },
      {
        "id": 9,
        "u_rated": 110000.0
      },
      {
        "id": 10,
        "u_rated": 110000.0
      },
      {
        "id": 11,
        "u_rated": 110000.0
      }
    ],
    "source": [
      {
        "id": 12,
        "node": 0,
        "status": 1,
        "u_ref": 1.0914094005316137,
        "u_ref_angle": 0.0,
        "sk": 701399404.0145779,
        "rx_ratio": 0.09820155454408014,
        "z01_ratio": 1.0
      },
      {
        "id": 13,
        "node": 11,
        "status": 1,
        "u_ref": 1.0,
        "u_ref_angle": 0.0,
        "sk": 824275004.2409434,
        "rx_ratio": 0.1,
        "z01_ratio": 1.0
      }
    ],
    "line": [
      {
        "id": 14,
        "from_node": 0,
        "to_node": 1,
        "from_status": 1,
        "to_status": 1,
        "r1": 1.665333258096603,
        "x1": 1.8618735981789163,
        "c1": 8.148658231116957e-07,
        "tan1": 0.0,
        "r0": 0.3,
        "x0": 0.3,
        "c0": 1e-09,
        "tan0": 0.0,
        "i_n": 191.501421968344
      },
      {
        "id": 15,
        "from_node": 1,
        "to_node": 2,
        "from_status": 1,
        "to_status": 1,
        "r1": 4.548407243185854,
        "x1": 2.455847480198064,
        "c1": 7.13372135887923e-08,
        "tan1": 0.0,
        "r0": 0.3,
        "x0": 0.3,
        "c0": 1e-09,
        "tan0": 0.0,
        "i_n": 918.6342433928634
      },
      {
        "id": 16,
        "from_node": 2,
        "to_node": 3,
        "from_status": 1,
        "to_status": 1,
        "r1": 2.864992568427145,
        "x1": 0.3936606128065251,
        "c1": 8.385794417948504e-07,
        "tan1": 0.0,
        "r0": 0.3,
        "x0": 0.3,
        "c0": 1e-09,
        "tan0": 0.0,
        "i_n": 777.0669053027603
      },
      {
        "id": 17,
        "from_node": 3,
        "to_node": 4,
        "from_status": 1,
        "to_status": 1,
        "r1": 3.7008464356032054,
        "x1": 3.287641012649326,
        "c1": 9.92705228550068e-07,
        "tan1": 0.0,
        "r0": 0.3,
        "x0": 0.3,
        "c0": 1e-09,
        "tan0": 0.0,
        "i_n": 21.982506115491297
      },
      {
        "id": 18,
        "from_node": 4,
        "to_node": 5,
        "from_status": 1,
        "to_status": 1,
        "r1": 4.8721551454089145,
        "x1": 3.213740418795897,
        "c1": 2.529389570469289e-07,
        "tan1": 0.0,
        "r0": 0.3,
        "x0": 0.3,
        "c0": 1e-09,
        "tan0": 0.0,
        "i_n": 616.3195432782549
      },
      {
        "id": 19,
        "from_node": 5,
        "to_node": 6,
        "from_status": 1,
        "to_status": 1,
        "r1": 1.6891614574947,
        "x1": 3.251571440229992,
        "c1": 7.042470709570998e-07,
        "tan1": 0.0,
        "r0": 0.3,
        "x0": 0.3,
        "c0": 1e-09,
        "tan0": 0.0,
        "i_n": 528.9913186398268
      },
      {
        "id": 20,
        "from_node": 6,
        "to_node": 7,
        "from_status": 1,
        "to_status": 1,
        "r1": 0.4936917862189094,
        "x1": 1.95970444947279,
        "c1": 3.020359494640535e-07,
        "tan1": 0.0,
        "r0": 0.3,
        "x0": 0.3,
        "c0": 1e-09,
        "tan0": 0.0,
        "i_n": 751.9169714142926
      },
      {
        "id": 21,
        "from_node": 7,
        "to_node": 8,
        "from_status": 1,
        "to_status": 1,
        "r1": 4.656134174673816,
        "x1": 3.8782663896618264,
        "c1": 5.304840660461477e-07,
        "tan1": 0.0,
        "r0": 0.3,
        "x0": 0.3,
        "c0": 1e-09,
        "tan0": 0.0,
        "i_n": 178.48042394948294
      },
      {
        "id": 22,
        "from_node": 8,
        "to_node": 9,
        "from_status": 1,
        "to_status": 1,
        "r1": 3.537696493849769,
        "x1": 1.3252871312306735,
        "c1": 9.972961995819602e-07,
        "tan1": 0.0,
        "r0": 0.3,
        "x0": 0.3,
        "c0": 1e-09,
        "tan0": 0.0,
        "i_n": 181.18023340203604
      },
      {
        "id": 23,
        "from_node": 9,
        "to_node": 10,
        "from_status": 1,
        "to_status": 1,
        "r1": 4.841191122319946,
        "x1": 0.07524465963504645,
        "c1": 7.797109123410145e-07,
        "tan1": 0.0,
        "r0": 0.3,
        "x0": 0.3,
        "c0": 1e-09,
        "tan0": 0.0,
        "i_n": 352.893859824357
      },
      {
        "id": 24,
        "from_node": 10,
        "to_node": 11,
        "from_status": 1,
        "to_status": 1,
        "r1": 2.8703809371092537,
        "x1": 2.079059819317757,
        "c1": 3.0791613457067413e-07,
        "tan1": 0.0,
        "r0": 0.3,
        "x0": 0.3,
        "c0": 1e-09,
        "tan0": 0.0,
        "i_n": 443.30817650040103
      }
    ],
    "sym_load": [
      {
        "id": 25,
        "node": 2,
        "status": 1,
        "type": 1,
        "p_specified": -68604.09709597424,
        "q_specified": -4691.927704556516
      },
      {
        "id": 26,
        "node": 3,
        "status": 1,
        "type": 2,
        "p_specified": -87703.92311013927,
        "q_specified": -5015.107665962635
      },
      {
        "id": 27,
        "node": 4,
        "status": 1,
        "type": 2,
        "p_specified": -2172.8119914009585,
        "q_specified": -8171.045283289471
      },
      {
        "id": 28,
        "node": 5,
        "status": 1,
        "type": 0,
        "p_specified": -21383.963013083543,
        "q_specified": 2719.190584765616
      },
      {
        "id": 29,
        "node": 6,
        "status": 1,
        "type": 2,
        "p_specified": 39068.15899840114,
        "q_specified": -8351.976826813905
      },
      {
        "id": 30,
        "node": 7,
        "status": 1,
        "type": 1,
        "p_specified": 2643.813367713912,
        "q_specified": 1717.0017991202458
      },
      {
        "id": 31,
        "node": 9,
        "status": 1,
        "type": 1,
        "p_specified": 10854.258451792906,
        "q_specified": 7890.637065259718
      },
      {
        "id": 32,
        "node": 11,
        "status": 1,
        "type": 0,
        "p_specified": -25422.698561637677,
        "q_specified": -6207.164630865949
      }
    ]
  }
}